obj01


 30 33  0  0  0  0  0  0  0  0999 V2000
  -15.2512   18.2579  -25.2380 C   0  0  0  0  0
  -14.6042   19.1858  -26.2471 C   0  0  0  0  0
  -13.3842   18.4118  -26.7340 C   0  0  0  0  0
  -15.0172   16.8628  -25.8240 C   0  0  0  0  0
  -13.2782   16.0038  -27.3729 C   0  0  0  0  0
  -13.3462   13.6348  -27.8119 C   0  0  0  0  0
  -12.1872   13.8007  -28.6219 C   0  0  0  0  0
  -11.6862   15.1017  -28.7309 C   0  0  0  0  0
  -10.4752   13.6787  -29.8949 C   0  0  0  0  0
   -9.7542   16.1597  -29.9429 C   0  0  0  0  0
  -10.3702   16.8997  -31.1340 C   0  0  0  0  0
   -8.3042   15.7747  -30.2899 C   0  0  0  0  0
  -15.1062   12.0988  -26.8758 C   0  0  0  0  0
  -15.9452   12.9228  -26.1369 C   0  0  0  0  0
  -15.6682   10.8198  -26.7248 C   0  0  0  0  0
  -18.0082   12.5189  -24.7809 C   0  0  0  0  0
  -15.0182   17.8509  -22.7590 C   0  0  0  0  0
  -14.0412   18.1580  -21.6300 C   0  0  0  0  0
  -14.3922   17.5020  -20.3030 C   0  0  0  0  0
  -13.8592   17.0448  -26.6900 N   0  0  0  0  0
  -13.8402   14.7728  -27.2159 N   0  0  0  0  0
  -12.1792   16.2268  -28.1450 N   0  0  0  0  0
  -10.5942   15.0137  -29.5489 N   0  0  0  0  0
  -11.4162   12.9287  -29.3558 N   0  0  0  0  0
  -13.9802   12.3898  -27.6098 N   0  0  0  0  0
  -16.9072   12.1159  -25.6208 N   0  0  0  0  0
  -16.7672   10.8238  -25.9588 N   0  0  0  0  0
  -14.5502   18.3779  -23.9550 N   0  0  0  0  0
  -16.0732   17.2210  -22.6190 O   0  0  0  0  0
  -15.4692   19.3648  -27.2881 F   0  0  0  0  0
  1  2  1  0  0  0
  1  4  1  0  0  0
  1 28  1  0  0  0
  2  3  1  0  0  0
  2 30  1  0  0  0
  3 20  1  0  0  0
  4 20  1  0  0  0
  5 22  1  0  0  0
  6 21  1  0  0  0
  6 25  1  0  0  0
  7  8  1  0  0  0
  7 24  1  0  0  0
  8 23  1  0  0  0
 10 23  1  0  0  0
 10 11  1  0  0  0
 10 12  1  0  0  0
 13 15  1  0  0  0
 14 26  1  0  0  0
 16 26  1  0  0  0
 18 17  1  0  0  0
 18 19  1  0  0  0
 20  5  1  0  0  0
 23  9  1  0  0  0
 25 13  1  0  0  0
 26 27  1  0  0  0
 28 17  1  0  0  0
  5 21  2  0  0  0
  6  7  2  0  0  0
  8 22  2  0  0  0
  9 24  2  0  0  0
 13 14  2  0  0  0
 15 27  2  0  0  0
 17 29  2  0  0  0
M  END
> <rmsd>
0.000631812378

$$$$
obj03


 32 35  0  0  0  0  0  0  0  0999 V2000
  -15.2630   18.2822  -25.2285 C   0  0  0  0  0
  -14.6362   19.1730  -26.2794 C   0  0  0  0  0
  -13.4025   18.3885  -26.7193 C   0  0  0  0  0
  -15.0396   16.8643  -25.7825 C   0  0  0  0  0
  -13.2992   15.9790  -27.3280 C   0  0  0  0  0
  -13.3395   13.6157  -27.7751 C   0  0  0  0  0
  -12.1834   13.7953  -28.5780 C   0  0  0  0  0
  -11.6983   15.0985  -28.6860 C   0  0  0  0  0
  -10.4765   13.6936  -29.8551 C   0  0  0  0  0
   -9.7825   16.1779  -29.9102 C   0  0  0  0  0
  -10.4211   16.9146  -31.0951 C   0  0  0  0  0
   -8.3409   15.8005  -30.2789 C   0  0  0  0  0
  -15.0935   12.0762  -26.8968 C   0  0  0  0  0
  -15.7773   12.7757  -25.9121 C   0  0  0  0  0
  -15.8526   10.9131  -27.0859 C   0  0  0  0  0
  -16.4095    8.8156  -28.0674 C   0  0  0  0  0
  -17.8768   12.3151  -24.6162 C   0  0  0  0  0
  -14.9625   17.9705  -22.7412 C   0  0  0  0  0
  -13.9774   18.3510  -21.6396 C   0  0  0  0  0
  -14.2634   17.6974  -20.2952 C   0  0  0  0  0
  -13.8814   17.0224  -26.6550 N   0  0  0  0  0
  -13.8505   14.7447  -27.1743 N   0  0  0  0  0
  -12.2032   16.2104  -28.0979 N   0  0  0  0  0
  -10.6074   15.0245  -29.5091 N   0  0  0  0  0
  -11.4092   12.9338  -29.3126 N   0  0  0  0  0
  -13.9552   12.3648  -27.5988 N   0  0  0  0  0
  -16.8591   12.0075  -25.5918 N   0  0  0  0  0
  -16.9349   10.8605  -26.2922 N   0  0  0  0  0
  -14.5387   18.4680  -23.9626 N   0  0  0  0  0
  -15.5269    9.9384  -27.9888 O   0  0  0  0  0
  -15.9859   17.3162  -22.5615 O   0  0  0  0  0
  -15.5092   19.2847  -27.3250 F   0  0  0  0  0
  1  2  1  0  0  0
  1  4  1  0  0  0
  1 29  1  0  0  0
  2  3  1  0  0  0
  2 32  1  0  0  0
  3 21  1  0  0  0
  4 21  1  0  0  0
  5 23  1  0  0  0
  6 22  1  0  0  0
  6 26  1  0  0  0
  7  8  1  0  0  0
  7 25  1  0  0  0
  8 24  1  0  0  0
 10 24  1  0  0  0
 10 11  1  0  0  0
 10 12  1  0  0  0
 13 15  1  0  0  0
 14 27  1  0  0  0
 15 30  1  0  0  0
 16 30  1  0  0  0
 17 27  1  0  0  0
 19 18  1  0  0  0
 19 20  1  0  0  0
 21  5  1  0  0  0
 24  9  1  0  0  0
 26 13  1  0  0  0
 27 28  1  0  0  0
 29 18  1  0  0  0
  5 22  2  0  0  0
  6  7  2  0  0  0
  8 23  2  0  0  0
  9 25  2  0  0  0
 13 14  2  0  0  0
 15 28  2  0  0  0
 18 31  2  0  0  0
M  END
> <rmsd>
0.14360112

$$$$
obj04


 30 33  0  0  0  0  0  0  0  0999 V2000
  -15.2621   18.2676  -25.2242 C   0  0  0  0  0
  -14.6832   19.1688  -26.2992 C   0  0  0  0  0
  -13.4353   18.4196  -26.7579 C   0  0  0  0  0
  -15.0085   16.8584  -25.7763 C   0  0  0  0  0
  -13.2795   16.0017  -27.3553 C   0  0  0  0  0
  -13.2947   13.6281  -27.7652 C   0  0  0  0  0
  -12.1628   13.8072  -28.6013 C   0  0  0  0  0
  -11.6945   15.1148  -28.7416 C   0  0  0  0  0
  -10.4898   13.6972  -29.9169 C   0  0  0  0  0
   -9.8108   16.1113  -30.0485 C   0  0  0  0  0
  -15.0487   12.0815  -26.9015 C   0  0  0  0  0
  -15.7525   12.7758  -25.9290 C   0  0  0  0  0
  -15.8063   10.9204  -27.1176 C   0  0  0  0  0
  -16.3528    8.8417  -28.1348 C   0  0  0  0  0
  -17.8818   12.3119  -24.6846 C   0  0  0  0  0
  -14.9294   18.0148  -22.7316 C   0  0  0  0  0
  -13.9201   18.4040  -21.6557 C   0  0  0  0  0
  -14.1482   17.7209  -20.3147 C   0  0  0  0  0
  -13.8736   17.0427  -26.6755 N   0  0  0  0  0
  -13.8123   14.7600  -27.1719 N   0  0  0  0  0
  -12.2002   16.2376  -28.1566 N   0  0  0  0  0
  -10.6320   15.0189  -29.5862 N   0  0  0  0  0
  -11.3992   12.9363  -29.3412 N   0  0  0  0  0
  -13.8971   12.3698  -27.5734 N   0  0  0  0  0
  -16.8414   12.0094  -25.6400 N   0  0  0  0  0
  -16.9055   10.8669  -26.3501 N   0  0  0  0  0
  -14.5148   18.4721  -23.9732 N   0  0  0  0  0
  -15.4647    9.9539  -28.0210 O   0  0  0  0  0
  -15.9658   17.3841  -22.5139 O   0  0  0  0  0
  -15.5839   19.2454  -27.3281 F   0  0  0  0  0
  1  2  1  0  0  0
  1  4  1  0  0  0
  1 27  1  0  0  0
  2  3  1  0  0  0
  2 30  1  0  0  0
  3 19  1  0  0  0
  4 19  1  0  0  0
  5 21  1  0  0  0
  6 20  1  0  0  0
  6 24  1  0  0  0
  7  8  1  0  0  0
  7 23  1  0  0  0
  8 22  1  0  0  0
 10 22  1  0  0  0
 11 13  1  0  0  0
 12 25  1  0  0  0
 13 28  1  0  0  0
 14 28  1  0  0  0
 15 25  1  0  0  0
 17 16  1  0  0  0
 17 18  1  0  0  0
 19  5  1  0  0  0
 22  9  1  0  0  0
 24 11  1  0  0  0
 25 26  1  0  0  0
 27 16  1  0  0  0
  5 20  2  0  0  0
  6  7  2  0  0  0
  8 21  2  0  0  0
  9 23  2  0  0  0
 11 12  2  0  0  0
 13 26  2  0  0  0
 16 29  2  0  0  0
M  END
> <rmsd>
0.212805405

$$$$
